test/data/case5_pst.json
{
  "per_unit": true,
  "name": "nesta_case5_pjm",
  "dcline": {},
  "baseMVA": 100,
  "gen": {
    "1": {
      "qc1max": 0,
      "model": 2,
      "startup": 0,
      "qc2max": 0,
      "qg": 0.3,
      "gen_bus": 1,
      "ramp_10": 0,
      "mbase": 100,
      "pc2": 0,
      "index": 1,
      "qmax": 0.3,
      "pc1": 0,
      "ramp_q": 0,
      "ramp_30": 0,
      "apf": 0,
      "pg": 0.4,
      "shutdown": 0,
      "ramp_agc": 0,
      "pmax": 0.4,
      "vg": 1.07762,
      "cost": [
        0,
        1400,
        0
      ],
      "gen_status": 1,
      "qmin": -0.3,
      "qc1min": 0,
      "qc2min": 0,
      "pmin": 0,
      "ncost": 3
    },
    "2": {
      "qc1max": 0,
      "model": 2,
      "startup": 0,
      "qc2max": 0,
      "qg": 1.275,
      "gen_bus": 1,
      "ramp_10": 0,
      "mbase": 100,
      "pc2": 0,
      "index": 2,
      "qmax": 1.275,
      "pc1": 0,
      "ramp_q": 0,
      "ramp_30": 0,
      "apf": 0,
      "pg": 1.7,
      "shutdown": 0,
      "ramp_agc": 0,
      "pmax": 1.7,
      "vg": 1.07762,
      "cost": [
        0,
        1500,
        0
      ],
      "gen_status": 1,
      "qmin": -1.275,
      "qc1min": 0,
      "qc2min": 0,
      "pmin": 0,
      "ncost": 3
    },
    "3": {
      "qc1max": 0,
      "model": 2,
      "startup": 0,
      "qc2max": 0,
      "qg": 3.9,
      "gen_bus": 3,
      "ramp_10": 0,
      "mbase": 100,
      "pc2": 0,
      "index": 3,
      "qmax": 3.9,
      "pc1": 0,
      "ramp_q": 0,
      "ramp_30": 0,
      "apf": 0,
      "pg": 3.24498,
      "shutdown": 0,
      "ramp_agc": 0,
      "pmax": 5.2,
      "vg": 1.1,
      "cost": [
        0,
        3000,
        0
      ],
      "gen_status": 1,
      "qmin": -3.9,
      "qc1min": 0,
      "qc2min": 0,
      "pmin": 0,
      "ncost": 3
    },
    "4": {
      "qc1max": 0,
      "model": 2,
      "startup": 0,
      "qc2max": 0,
      "qg": -0.10801999999999999,
      "gen_bus": 4,
      "ramp_10": 0,
      "mbase": 100,
      "pc2": 0,
      "index": 4,
      "qmax": 1.5,
      "pc1": 0,
      "ramp_q": 0,
      "ramp_30": 0,
      "apf": 0,
      "pg": 0,
      "shutdown": 0,
      "ramp_agc": 0,
      "pmax": 2,
      "vg": 1.06414,
      "cost": [
        0,
        4000,
        0
      ],
      "gen_status": 1,
      "qmin": -1.5,
      "qc1min": 0,
      "qc2min": 0,
      "pmin": 0,
      "ncost": 3
    },
    "5": {
      "qc1max": 0,
      "model": 2,
      "startup": 0,
      "qc2max": 0,
      "qg": -1.6503899999999998,
      "gen_bus": 5,
      "ramp_10": 0,
      "mbase": 100,
      "pc2": 0,
      "index": 5,
      "qmax": 4.5,
      "pc1": 0,
      "ramp_q": 0,
      "ramp_30": 0,
      "apf": 0,
      "pg": 4.70694,
      "shutdown": 0,
      "ramp_agc": 0,
      "pmax": 6,
      "vg": 1.06907,
      "cost": [
        0,
        1000,
        0
      ],
      "gen_status": 1,
      "qmin": -4.5,
      "qc1min": 0,
      "qc2min": 0,
      "pmin": 0,
      "ncost": 3
    }
  },
  "areas": {
    "1": {
      "col_1": 1,
      "index": 1,
      "col_2": 4
    }
  },
  "branch": {
    "1": {
      "br_r": 0.00281,
      "f_bus": 1,
      "shift_to_max": 0,
      "br_status": 1,
      "rate_a": 4,
      "shift": 0,
      "t_bus": 2,
      "shift_fr_max": 0,
      "index": 1,
      "br_b": 0.00712,
      "rate_b": 4,
      "shift_to_min": 0,
      "angmin": -0.5235987755982988,
      "angmax": 0.5235987755982988,
      "transformer": false,
      "br_x": 0.0281,
      "rate_c": 4,
      "tap": 1,
      "shift_fr_min": 0,
      "shiftable": false
    },
    "2": {
      "br_r": 0.00304,
      "f_bus": 1,
      "shift_to_max": 0,
      "br_status": 1,
      "rate_a": 4.26,
      "shift": 0,
      "t_bus": 4,
      "shift_fr_max": 0,
      "index": 2,
      "br_b": 0.00658,
      "rate_b": 4.26,
      "shift_to_min": 0,
      "angmin": -0.5235987755982988,
      "angmax": 0.5235987755982988,
      "transformer": false,
      "br_x": 0.0304,
      "rate_c": 4.26,
      "tap": 1,
      "shift_fr_min": 0,
      "shiftable": false
    },
    "3": {
      "br_r": 0.00064,
      "f_bus": 1,
      "shift_to_max": 0,
      "br_status": 1,
      "rate_a": 4.26,
      "shift": 0,
      "t_bus": 5,
      "shift_fr_max": 0,
      "index": 3,
      "br_b": 0.03126,
      "rate_b": 4.26,
      "shift_to_min": 0,
      "angmin": -0.5235987755982988,
      "angmax": 0.5235987755982988,
      "transformer": false,
      "br_x": 0.0064,
      "rate_c": 4.26,
      "tap": 1,
      "shift_fr_min": 0,
      "shiftable": false
    },
    "4": {
      "br_r": 0.00108,
      "f_bus": 2,
      "shift_to_max": 0,
      "br_status": 1,
      "rate_a": 4.26,
      "shift": -0.05235987755982989,
      "t_bus": 3,
      "shift_fr_max": 0.5236,
      "index": 4,
      "br_b": 0.01852,
      "rate_b": 4.26,
      "shift_to_min": 0,
      "angmin": -0.5235987755982988,
      "angmax": 0.5235987755982988,
      "transformer": false,
      "br_x": 0.0108,
      "rate_c": 4.26,
      "tap": 1,
      "shift_fr_min": -0.5236,
      "shiftable": true
    },
    "5": {
      "br_r": 0.00297,
      "f_bus": 3,
      "shift_to_max": 0,
      "br_status": 1,
      "rate_a": 4.26,
      "shift": 0,
      "t_bus": 4,
      "shift_fr_max": 0,
      "index": 5,
      "br_b": 0.00674,
      "rate_b": 4.26,
      "shift_to_min": 0,
      "angmin": -0.5235987755982988,
      "angmax": 0.5235987755982988,
      "transformer": false,
      "br_x": 0.0297,
      "rate_c": 4.26,
      "tap": 1,
      "shift_fr_min": 0,
      "shiftable": false
    },
    "6": {
      "br_r": 0.00297,
      "f_bus": 4,
      "shift_to_max": 0,
      "br_status": 1,
      "rate_a": 2.4,
      "shift": 0,
      "t_bus": 5,
      "shift_fr_max": 0,
      "index": 6,
      "br_b": 0.00674,
      "rate_b": 2.4,
      "shift_to_min": 0,
      "angmin": -0.5235987755982988,
      "angmax": 0.5235987755982988,
      "transformer": false,
      "br_x": 0.0297,
      "rate_c": 2.4,
      "tap": 1,
      "shift_fr_min": 0,
      "shiftable": false
    }
  },
  "version": "2",
  "bus": {
    "1": {
      "zone": 1,
      "bus_i": 1,
      "bus_type": 2,
      "qd": 0,
      "gs": 0,
      "bs": 0,
      "vmax": 1.1,
      "area": 1,
      "vmin": 0.9,
      "index": 1,
      "va": 0.048935017968641414,
      "vm": 1.07762,
      "base_kv": 230,
      "pd": 0
    },
    "2": {
      "zone": 1,
      "bus_i": 2,
      "bus_type": 1,
      "qd": 0.9861,
      "gs": 0,
      "bs": 0,
      "vmax": 1.1,
      "area": 1,
      "vmin": 0.9,
      "index": 2,
      "va": -0.012822061349776342,
      "vm": 1.08407,
      "base_kv": 230,
      "pd": 3
    },
    "3": {
      "zone": 1,
      "bus_i": 3,
      "bus_type": 2,
      "qd": 0.9861,
      "gs": 0,
      "bs": 0,
      "vmax": 1.1,
      "area": 1,
      "vmin": 0.9,
      "index": 3,
      "va": -0.00976895688926266,
      "vm": 1.1,
      "base_kv": 230,
      "pd": 3
    },
    "4": {
      "zone": 1,
      "bus_i": 4,
      "bus_type": 3,
      "qd": 1.3147,
      "gs": 0,
      "bs": 0,
      "vmax": 1.1,
      "area": 1,
      "vmin": 0.9,
      "index": 4,
      "va": 0,
      "vm": 1.06414,
      "base_kv": 230,
      "pd": 4
    },
    "5": {
      "zone": 1,
      "bus_i": 5,
      "bus_type": 2,
      "qd": 0,
      "gs": 0,
      "bs": 0,
      "vmax": 1.1,
      "area": 1,
      "vmin": 0.9,
      "index": 5,
      "va": 0.06266307973312801,
      "vm": 1.06907,
      "base_kv": 230,
      "pd": 0
    }
  }
}
